*
*---- act defproc: foo<> -----
* raw ports:  p q r
*
.subckt foo p q r
*.PININFO p:O q:O r:O
*.POWER VDD Vdd
*.POWER GND GND
*.POWER NSUB GND
*.POWER PSUB Vdd
xn p q n_4c nand2
xn2 q r n2_4c nand2
.ends
*---- end of process: foo<> -----
