*
*---- act defproc: foo<> -----
* raw ports:  a b
*
.subckt foo a b
*.PININFO a:I b:O
*.POWER VDD Vdd
*.POWER GND GND
*.POWER NSUB GND
*.POWER PSUB Vdd
*
* --- node flags ---
*
* b (state-holding): pup_reff=-1; pdn_reff=0.2
* d (state-holding): pup_reff=-1; pdn_reff=0.2
*
* --- end node flags ---
*
M0_ #fb6# b Vdd Vdd pch W=0.15U L=0.06U
M1_keeper b #fb6# Vdd Vdd pch W=0.12U L=0.09U
M2_ #fb7# d Vdd Vdd pch W=0.15U L=0.06U
M3_keeper d #fb7# Vdd Vdd pch W=0.12U L=0.09U
M4_ b a GND GND nhvt W=0.3U L=0.06U
M5_ d c GND GND nhvt W=0.3U L=0.06U
M6_ #fb6# b GND GND nch W=0.15U L=0.06U
M7_keeper b #fb6# GND GND nch W=0.12U L=0.06U
M8_ #fb7# d GND GND nch W=0.15U L=0.06U
M9_keeper d #fb7# GND GND nch W=0.12U L=0.06U
.ends
*---- end of process: foo<> -----
