*
*---- act defproc: foo<> -----
* raw ports:  a b c
*
.subckt foo a b c
*.PININFO a:I b:I c:O
*.POWER VDD Vdd
*.POWER GND GND
*.POWER NSUB GND
*.POWER PSUB Vdd
*
* --- node flags ---
*
* c (combinational)
*
* --- end node flags ---
*
M0_ c a Vdd Vdd pch W=1.5U L=0.06U
M1_ c b Vdd Vdd pch W=1.5U L=0.06U
M2_ #3 a GND GND nch W=1.2U L=0.06U
M3_ c b #3 GND nch W=1.2U L=0.06U
.ends
*---- end of process: foo<> -----
