*
*---- act defproc: foo<> -----
* raw ports:  a b
*
.subckt foo a b
*.PININFO a:I b:O
*.POWER VDD Vdd
*.POWER GND GND
*.POWER NSUB GND
*.POWER PSUB Vdd
*
* --- node flags ---
*
* b (combinational)
*
* --- end node flags ---
*
M0_ b a Vdd Vdd pch W=0.235U L=0.06U
M1_ b a GND GND nch W=0.355U L=0.06U
.ends
*---- end of process: foo<> -----
