*
*---- act defproc: cell::g_0x1<> -----
* raw ports:  in[0] out
*
.subckt _8_8cell_8_8g_0x1 in_20_3 out
*.PININFO in_20_3:I out:O
*.POWER VDD Vdd
*.POWER GND GND
*.POWER NSUB GND
*.POWER PSUB Vdd
*
* --- node flags ---
*
* out (state-holding): pup_reff=-1; pdn_reff=0.4
*
* --- end node flags ---
*
M0_N #fb4# out Vdd Vdd pch W=0.15U L=0.06U
M1_Nkeeper #5 GND Vdd Vdd pch W=0.12U L=0.12U
M2_N out in_20_3 GND GND nch W=0.15U L=0.06U
M3_N #fb4# out GND GND nch W=0.15U L=0.06U
M4_Nkeeper out #fb4# GND GND nch W=0.12U L=0.06U
M5_Nkeeper out #fb4# #5 Vdd pch W=0.12U L=0.06U
.ends
*---- end of process: g_0x1<> -----
.subckt foo a b
xcpx0 a b _8_8cell_8_8g_0x1
.ends
