*
*---- act defproc: foo<> -----
* raw ports:  w
*
.subckt foo w
*.PININFO w:O
*.POWER VDD Vdd
*.POWER GND GND
*.POWER NSUB GND
*.POWER PSUB Vdd
*
* --- node flags ---
*
* b (combinational)
* a (combinational)
* w (combinational)
*
* --- end node flags ---
*
M0_ b a GND GND nch W=0.15U L=0.06U
M1_ a Vdd GND GND nch W=0.15U L=0.06U
C_per_node_0 b GND 4e-15
C_per_node_1 a GND 4e-15
C_per_node_2 w GND 4e-15
.ends
*---- end of process: foo<> -----
