*
*---- act defproc: cell::g0n_0x1<> -----
* raw ports:  in[0] out
*
.subckt _8_8cell_8_8g0n_0x1 in_20_3 out
*.PININFO in_20_3:I out:O
*.POWER VDD Vdd
*.POWER GND GND
*.POWER NSUB GND
*.POWER PSUB Vdd
*
* --- node flags ---
*
* out (combinational)
*
* --- end node flags ---
*
M0_ out in_20_3 Vdd Vdd pch W=1.5U L=0.06U
M1_ out in_20_3 GND GND nch W=0.6U L=0.06U
.ends
*---- end of process: g0n_0x1<> -----
.subckt foo a b
xcx0 a b _8_8cell_8_8g0n_0x1
.ends
