*
*---- act defproc: cell::g0n1na_x1<> -----
* raw ports:  in[0] in[1] out
*
.subckt _8_8cell_8_8g0n1na_x1 in_20_3 in_21_3 out
*.PININFO in_20_3:I in_21_3:I out:O
*.POWER VDD Vdd
*.POWER GND GND
*.POWER NSUB GND
*.POWER PSUB Vdd
*
* --- node flags ---
*
* out (combinational)
*
* --- end node flags ---
*
M0_ #3 in_20_3 Vdd Vdd pch W=0.72U L=0.06U
M1_ out in_21_3 #3 Vdd pch W=0.72U L=0.06U
.ends
*---- end of process: g0n1na_x1<> -----
*
*---- act defproc: cell::n0<18,2> -----
* raw ports:  in[0] in[1] out
*
.subckt _8_8cell_8_8n0_018_72_1 in_20_3 in_21_3 out
*.PININFO in_20_3:I in_21_3:I out:O
*.POWER VDD Vdd
*.POWER GND GND
*.POWER NSUB GND
*.POWER PSUB Vdd
*
* --- node flags ---
*
* out (combinational)
*
* --- end node flags ---
*
M0_pass out in_20_3 in_21_3 GND nch W=0.54U L=0.06U
.ends
*---- end of process: n0<18,2> -----
*
*---- act defproc: cell::p0<36,2> -----
* raw ports:  in[0] in[1] out
*
.subckt _8_8cell_8_8p0_036_72_1 in_20_3 in_21_3 out
*.PININFO in_20_3:I in_21_3:I out:O
*.POWER VDD Vdd
*.POWER GND GND
*.POWER NSUB GND
*.POWER PSUB Vdd
*
* --- node flags ---
*
* out (combinational)
*
* --- end node flags ---
*
M0_pass out in_20_3 in_21_3 Vdd pch W=1.08U L=0.06U
.ends
*---- end of process: p0<36,2> -----
*
*---- act defproc: cell::g_0123aaax0<> -----
* raw ports:  in[0] in[1] in[2] in[3] out
*
.subckt _8_8cell_8_8g_0123aaax0 in_20_3 in_21_3 in_22_3 in_23_3 out
*.PININFO in_20_3:I in_21_3:I in_22_3:I in_23_3:I out:O
*.POWER VDD Vdd
*.POWER GND GND
*.POWER NSUB GND
*.POWER PSUB Vdd
*
* --- node flags ---
*
* out (combinational)
*
* --- end node flags ---
*
M0_ #5 in_20_3 GND GND nch W=0.72U L=0.06U
M1_ out in_23_3 #3 GND nch W=0.72U L=0.06U
M2_ #3 in_22_3 #4 GND nch W=0.72U L=0.06U
M3_ #4 in_21_3 #5 GND nch W=0.72U L=0.06U
.ends
*---- end of process: g_0123aaax0<> -----
*
*---- act defproc: cell::g0n1n2n3naaa_x0<> -----
* raw ports:  in[0] in[1] in[2] in[3] out
*
.subckt _8_8cell_8_8g0n1n2n3naaa_x0 in_20_3 in_21_3 in_22_3 in_23_3 out
*.PININFO in_20_3:I in_21_3:I in_22_3:I in_23_3:I out:O
*.POWER VDD Vdd
*.POWER GND GND
*.POWER NSUB GND
*.POWER PSUB Vdd
*
* --- node flags ---
*
* out (combinational)
*
* --- end node flags ---
*
M0_ #5 in_20_3 Vdd Vdd pch W=1.44U L=0.06U
M1_ out in_23_3 #3 Vdd pch W=1.44U L=0.06U
M2_ #3 in_22_3 #4 Vdd pch W=1.44U L=0.06U
M3_ #4 in_21_3 #5 Vdd pch W=1.44U L=0.06U
.ends
*---- end of process: g0n1n2n3naaa_x0<> -----
*
*---- act defproc: cell::g_01ax2<> -----
* raw ports:  in[0] in[1] out
*
.subckt _8_8cell_8_8g_01ax2 in_20_3 in_21_3 out
*.PININFO in_20_3:I in_21_3:I out:O
*.POWER VDD Vdd
*.POWER GND GND
*.POWER NSUB GND
*.POWER PSUB Vdd
*
* --- node flags ---
*
* out (combinational)
*
* --- end node flags ---
*
M0_ #3 in_20_3 GND GND nch W=0.36U L=0.06U
M1_ out in_21_3 #3 GND nch W=0.36U L=0.06U
.ends
*---- end of process: g_01ax2<> -----
.subckt foo A_20_3_4d_20_3 A_20_3_4d_21_3 A_21_3_4d_20_3 A_21_3_4d_21_3 A_22_3_4d_20_3 A_22_3_4d_21_3 A_23_3_4d_20_3 A_23_3_4d_21_3 P_20_3_4d_20_3 P_20_3_4d_21_3 P_21_3_4d_20_3 P_21_3_4d_21_3 P_22_3_4d_20_3 P_22_3_4d_21_3 P_23_3_4d_20_3 P_23_3_4d_21_3 P_24_3_4d_20_3 P_24_3_4d_21_3 P_25_3_4d_20_3 P_25_3_4d_21_3 P_26_3_4d_20_3 P_26_3_4d_21_3 P_27_3_4d_20_3 P_27_3_4d_21_3 P_28_3_4d_20_3 P_28_3_4d_21_3 P_29_3_4d_20_3 P_29_3_4d_21_3
xcpx19 cpx7_4in_22_3 cpx7_4in_23_3 P_29_3_4d_20_3 _8_8cell_8_8g0n1na_x1
xcx25 cx9_4in_20_3 A_20_3_4d_20_3 P_23_3_4d_20_3 _8_8cell_8_8n0_018_72_1
xcx18 cx2_4in_20_3 A_20_3_4d_21_3 P_20_3_4d_20_3 _8_8cell_8_8p0_036_72_1
xcx67 cx3_4in_20_3 A_22_3_4d_20_3 P_22_3_4d_21_3 _8_8cell_8_8n0_018_72_1
xcx74 e1n_4d_20_3 A_22_3_4d_20_3 P_27_3_4d_21_3 _8_8cell_8_8p0_036_72_1
xcx118 cx6_4in_20_3 A_23_3_4d_21_3 P_26_3_4d_20_3 _8_8cell_8_8p0_036_72_1
xcx61 cpx7_4in_22_3 A_21_3_4d_20_3 P_27_3_4d_20_3 _8_8cell_8_8n0_018_72_1
xcx103 cx7_4in_20_3 A_23_3_4d_20_3 P_26_3_4d_21_3 _8_8cell_8_8n0_018_72_1
xcx57 cx9_4in_20_3 A_21_3_4d_20_3 P_25_3_4d_20_3 _8_8cell_8_8n0_018_72_1
xcx8 cx8_4in_20_3 A_20_3_4d_21_3 P_23_3_4d_21_3 _8_8cell_8_8p0_036_72_1
xcx105 cx9_4in_20_3 A_23_3_4d_21_3 P_28_3_4d_21_3 _8_8cell_8_8n0_018_72_1
xcx9 cx9_4in_20_3 A_20_3_4d_21_3 P_23_3_4d_21_3 _8_8cell_8_8n0_018_72_1
xcx104 cx8_4in_20_3 A_23_3_4d_21_3 P_28_3_4d_21_3 _8_8cell_8_8p0_036_72_1
xcx36 cx4_4in_20_3 A_21_3_4d_21_3 P_22_3_4d_21_3 _8_8cell_8_8p0_036_72_1
xcx20 cx4_4in_20_3 A_20_3_4d_20_3 P_21_3_4d_20_3 _8_8cell_8_8p0_036_72_1
xcx98 cx2_4in_20_3 A_23_3_4d_20_3 P_24_3_4d_21_3 _8_8cell_8_8p0_036_72_1
xcpx6 cx8_4in_20_3 e1n_4d_20_3 cpx6_4in_22_3 cpx6_4in_23_3 P_25_3_4d_21_3 _8_8cell_8_8g_0123aaax0
xcx126 cpx6_4in_23_3 A_23_3_4d_21_3 P_29_3_4d_20_3 _8_8cell_8_8p0_036_72_1
xcx65 cx1_4in_20_3 A_22_3_4d_21_3 P_22_3_4d_21_3 _8_8cell_8_8n0_018_72_1
xcx76 cpx6_4in_22_3 A_22_3_4d_21_3 P_28_3_4d_21_3 _8_8cell_8_8p0_036_72_1
xcpx7 cx9_4in_20_3 e1n_4d_21_3 cpx7_4in_22_3 cpx7_4in_23_3 P_25_3_4d_20_3 _8_8cell_8_8g0n1n2n3naaa_x0
xcx127 cpx7_4in_23_3 A_23_3_4d_21_3 P_29_3_4d_20_3 _8_8cell_8_8n0_018_72_1
xcx54 cx6_4in_20_3 A_21_3_4d_21_3 P_22_3_4d_20_3 _8_8cell_8_8p0_036_72_1
xcpx16 cx4_4in_20_3 cx6_4in_20_3 P_26_3_4d_21_3 _8_8cell_8_8g_01ax2
xcx111 cpx7_4in_23_3 A_23_3_4d_20_3 P_29_3_4d_21_3 _8_8cell_8_8n0_018_72_1
xcx15 cpx7_4in_23_3 A_20_3_4d_20_3 P_25_3_4d_21_3 _8_8cell_8_8n0_018_72_1
xcx68 cx4_4in_20_3 A_22_3_4d_21_3 P_24_3_4d_21_3 _8_8cell_8_8p0_036_72_1
xcx79 cpx7_4in_23_3 A_22_3_4d_20_3 P_28_3_4d_21_3 _8_8cell_8_8n0_018_72_1
xcpx0 cx0_4in_20_3 cx2_4in_20_3 P_20_3_4d_21_3 _8_8cell_8_8g_01ax2
xcx120 cx8_4in_20_3 A_23_3_4d_20_3 P_28_3_4d_20_3 _8_8cell_8_8p0_036_72_1
xcx21 cx5_4in_20_3 A_20_3_4d_20_3 P_21_3_4d_20_3 _8_8cell_8_8n0_018_72_1
xcx99 cx3_4in_20_3 A_23_3_4d_20_3 P_24_3_4d_21_3 _8_8cell_8_8n0_018_72_1
xcpx13 cx1_4in_20_3 cx3_4in_20_3 cx5_4in_20_3 cx7_4in_20_3 P_24_3_4d_20_3 _8_8cell_8_8g0n1n2n3naaa_x0
xcx114 cx2_4in_20_3 A_23_3_4d_21_3 P_24_3_4d_20_3 _8_8cell_8_8p0_036_72_1
xcx52 cx4_4in_20_3 A_21_3_4d_20_3 P_22_3_4d_20_3 _8_8cell_8_8p0_036_72_1
xcx2 cx2_4in_20_3 A_20_3_4d_20_3 P_20_3_4d_21_3 _8_8cell_8_8p0_036_72_1
xcx51 cx3_4in_20_3 A_21_3_4d_21_3 P_21_3_4d_20_3 _8_8cell_8_8n0_018_72_1
xcx33 cx1_4in_20_3 A_21_3_4d_21_3 P_21_3_4d_21_3 _8_8cell_8_8n0_018_72_1
xcx26 e1n_4d_20_3 A_20_3_4d_21_3 P_23_3_4d_20_3 _8_8cell_8_8p0_036_72_1
xcx95 cpx7_4in_23_3 A_22_3_4d_21_3 P_28_3_4d_20_3 _8_8cell_8_8n0_018_72_1
xcx16 cx0_4in_20_3 A_20_3_4d_20_3 P_20_3_4d_20_3 _8_8cell_8_8p0_036_72_1
xcx13 cpx7_4in_22_3 A_20_3_4d_21_3 P_25_3_4d_21_3 _8_8cell_8_8n0_018_72_1
xcx10 e1n_4d_20_3 A_20_3_4d_20_3 P_23_3_4d_21_3 _8_8cell_8_8p0_036_72_1
xcx30 cpx6_4in_23_3 A_20_3_4d_21_3 P_25_3_4d_20_3 _8_8cell_8_8p0_036_72_1
xcx27 e1n_4d_21_3 A_20_3_4d_21_3 P_23_3_4d_20_3 _8_8cell_8_8n0_018_72_1
xcx12 cpx6_4in_22_3 A_20_3_4d_21_3 P_25_3_4d_21_3 _8_8cell_8_8p0_036_72_1
xcx59 e1n_4d_21_3 A_21_3_4d_21_3 P_25_3_4d_20_3 _8_8cell_8_8n0_018_72_1
xcx81 cx1_4in_20_3 A_22_3_4d_20_3 P_22_3_4d_20_3 _8_8cell_8_8n0_018_72_1
xcpx10 cx8_4in_20_3 e1n_4d_20_3 cpx6_4in_22_3 cpx6_4in_23_3 P_27_3_4d_21_3 _8_8cell_8_8g_0123aaax0
xcx117 cx5_4in_20_3 A_23_3_4d_20_3 P_26_3_4d_20_3 _8_8cell_8_8n0_018_72_1
xcx34 cx2_4in_20_3 A_21_3_4d_20_3 P_21_3_4d_21_3 _8_8cell_8_8p0_036_72_1
xcx64 cx0_4in_20_3 A_22_3_4d_21_3 P_22_3_4d_21_3 _8_8cell_8_8p0_036_72_1
xcx77 cpx7_4in_22_3 A_22_3_4d_21_3 P_28_3_4d_21_3 _8_8cell_8_8n0_018_72_1
xcpx12 cx0_4in_20_3 cx2_4in_20_3 cx4_4in_20_3 cx6_4in_20_3 P_24_3_4d_21_3 _8_8cell_8_8g_0123aaax0
xcx115 cx3_4in_20_3 A_23_3_4d_21_3 P_24_3_4d_20_3 _8_8cell_8_8n0_018_72_1
xcx44 cpx6_4in_22_3 A_21_3_4d_21_3 P_27_3_4d_21_3 _8_8cell_8_8p0_036_72_1
xcx17 cx1_4in_20_3 A_20_3_4d_20_3 P_20_3_4d_20_3 _8_8cell_8_8n0_018_72_1
xcx82 cx2_4in_20_3 A_22_3_4d_21_3 P_22_3_4d_20_3 _8_8cell_8_8p0_036_72_1
xcx38 cx6_4in_20_3 A_21_3_4d_20_3 P_22_3_4d_21_3 _8_8cell_8_8p0_036_72_1
xcx94 cpx6_4in_23_3 A_22_3_4d_21_3 P_28_3_4d_20_3 _8_8cell_8_8p0_036_72_1
xcx96 cx0_4in_20_3 A_23_3_4d_21_3 P_24_3_4d_21_3 _8_8cell_8_8p0_036_72_1
xcpx5 cx1_4in_20_3 cx3_4in_20_3 cx5_4in_20_3 cx7_4in_20_3 P_21_3_4d_20_3 _8_8cell_8_8g0n1n2n3naaa_x0
xcx125 cpx7_4in_22_3 A_23_3_4d_20_3 P_29_3_4d_20_3 _8_8cell_8_8n0_018_72_1
xcx43 e1n_4d_21_3 A_21_3_4d_20_3 P_25_3_4d_21_3 _8_8cell_8_8n0_018_72_1
xcx80 cx0_4in_20_3 A_22_3_4d_20_3 P_22_3_4d_20_3 _8_8cell_8_8p0_036_72_1
xcx93 cpx7_4in_22_3 A_22_3_4d_20_3 P_28_3_4d_20_3 _8_8cell_8_8n0_018_72_1
xcx40 cx8_4in_20_3 A_21_3_4d_21_3 P_25_3_4d_21_3 _8_8cell_8_8p0_036_72_1
xcx47 cpx7_4in_23_3 A_21_3_4d_20_3 P_27_3_4d_21_3 _8_8cell_8_8n0_018_72_1
xcx92 cpx6_4in_22_3 A_22_3_4d_20_3 P_28_3_4d_20_3 _8_8cell_8_8p0_036_72_1
xcx28 cpx6_4in_22_3 A_20_3_4d_20_3 P_25_3_4d_20_3 _8_8cell_8_8p0_036_72_1
xcx14 cpx6_4in_23_3 A_20_3_4d_20_3 P_25_3_4d_21_3 _8_8cell_8_8p0_036_72_1
xcx78 cpx6_4in_23_3 A_22_3_4d_20_3 P_28_3_4d_21_3 _8_8cell_8_8p0_036_72_1
xcx85 cx5_4in_20_3 A_22_3_4d_20_3 P_24_3_4d_20_3 _8_8cell_8_8n0_018_72_1
xcx90 e1n_4d_20_3 A_22_3_4d_21_3 P_27_3_4d_20_3 _8_8cell_8_8p0_036_72_1
xcx53 cx5_4in_20_3 A_21_3_4d_20_3 P_22_3_4d_20_3 _8_8cell_8_8n0_018_72_1
xcx73 cx9_4in_20_3 A_22_3_4d_21_3 P_27_3_4d_21_3 _8_8cell_8_8n0_018_72_1
xcx84 cx4_4in_20_3 A_22_3_4d_20_3 P_24_3_4d_20_3 _8_8cell_8_8p0_036_72_1
xcx108 cpx6_4in_22_3 A_23_3_4d_21_3 P_29_3_4d_21_3 _8_8cell_8_8p0_036_72_1
xcx1 cx1_4in_20_3 A_20_3_4d_21_3 P_20_3_4d_21_3 _8_8cell_8_8n0_018_72_1
xcx5 cx5_4in_20_3 A_20_3_4d_21_3 P_21_3_4d_21_3 _8_8cell_8_8n0_018_72_1
xcx42 e1n_4d_20_3 A_21_3_4d_20_3 P_25_3_4d_21_3 _8_8cell_8_8p0_036_72_1
xcx109 cpx7_4in_22_3 A_23_3_4d_21_3 P_29_3_4d_21_3 _8_8cell_8_8n0_018_72_1
xcx0 cx0_4in_20_3 A_20_3_4d_21_3 P_20_3_4d_21_3 _8_8cell_8_8p0_036_72_1
xcx4 cx4_4in_20_3 A_20_3_4d_21_3 P_21_3_4d_21_3 _8_8cell_8_8p0_036_72_1
xcpx11 cx9_4in_20_3 e1n_4d_21_3 cpx7_4in_22_3 cpx7_4in_23_3 P_27_3_4d_20_3 _8_8cell_8_8g0n1n2n3naaa_x0
xcx116 cx4_4in_20_3 A_23_3_4d_20_3 P_26_3_4d_20_3 _8_8cell_8_8p0_036_72_1
xcx88 cx8_4in_20_3 A_22_3_4d_20_3 P_27_3_4d_20_3 _8_8cell_8_8p0_036_72_1
xcx101 cx5_4in_20_3 A_23_3_4d_21_3 P_26_3_4d_21_3 _8_8cell_8_8n0_018_72_1
xcx83 cx3_4in_20_3 A_22_3_4d_21_3 P_22_3_4d_20_3 _8_8cell_8_8n0_018_72_1
xcx35 cx3_4in_20_3 A_21_3_4d_20_3 P_21_3_4d_21_3 _8_8cell_8_8n0_018_72_1
xcx24 cx8_4in_20_3 A_20_3_4d_20_3 P_23_3_4d_20_3 _8_8cell_8_8p0_036_72_1
xcx23 cx7_4in_20_3 A_20_3_4d_21_3 P_21_3_4d_20_3 _8_8cell_8_8n0_018_72_1
xcx63 cpx7_4in_23_3 A_21_3_4d_21_3 P_27_3_4d_20_3 _8_8cell_8_8n0_018_72_1
xcx41 cx9_4in_20_3 A_21_3_4d_21_3 P_25_3_4d_21_3 _8_8cell_8_8n0_018_72_1
xcx62 cpx6_4in_23_3 A_21_3_4d_21_3 P_27_3_4d_20_3 _8_8cell_8_8p0_036_72_1
xcx86 cx6_4in_20_3 A_22_3_4d_21_3 P_24_3_4d_20_3 _8_8cell_8_8p0_036_72_1
xcpx15 cx9_4in_20_3 e1n_4d_21_3 cpx7_4in_22_3 cpx7_4in_23_3 P_28_3_4d_20_3 _8_8cell_8_8g0n1n2n3naaa_x0
xcpx8 cx0_4in_20_3 cx2_4in_20_3 cx4_4in_20_3 cx6_4in_20_3 P_22_3_4d_21_3 _8_8cell_8_8g_0123aaax0
xcx112 cx0_4in_20_3 A_23_3_4d_20_3 P_24_3_4d_20_3 _8_8cell_8_8p0_036_72_1
xcx106 e1n_4d_20_3 A_23_3_4d_20_3 P_28_3_4d_21_3 _8_8cell_8_8p0_036_72_1
xcx32 cx0_4in_20_3 A_21_3_4d_21_3 P_21_3_4d_21_3 _8_8cell_8_8p0_036_72_1
xcx70 cx6_4in_20_3 A_22_3_4d_20_3 P_24_3_4d_21_3 _8_8cell_8_8p0_036_72_1
xcx22 cx6_4in_20_3 A_20_3_4d_21_3 P_21_3_4d_20_3 _8_8cell_8_8p0_036_72_1
xcx100 cx4_4in_20_3 A_23_3_4d_21_3 P_26_3_4d_21_3 _8_8cell_8_8p0_036_72_1
xcx102 cx6_4in_20_3 A_23_3_4d_20_3 P_26_3_4d_21_3 _8_8cell_8_8p0_036_72_1
xcpx2 cx8_4in_20_3 e1n_4d_20_3 P_23_3_4d_21_3 _8_8cell_8_8g_01ax2
xcx122 e1n_4d_20_3 A_23_3_4d_21_3 P_28_3_4d_20_3 _8_8cell_8_8p0_036_72_1
xcx7 cx7_4in_20_3 A_20_3_4d_20_3 P_21_3_4d_21_3 _8_8cell_8_8n0_018_72_1
xcx72 cx8_4in_20_3 A_22_3_4d_21_3 P_27_3_4d_21_3 _8_8cell_8_8p0_036_72_1
xcx107 e1n_4d_21_3 A_23_3_4d_20_3 P_28_3_4d_21_3 _8_8cell_8_8n0_018_72_1
xcx46 cpx6_4in_23_3 A_21_3_4d_20_3 P_27_3_4d_21_3 _8_8cell_8_8p0_036_72_1
xcx58 e1n_4d_20_3 A_21_3_4d_21_3 P_25_3_4d_20_3 _8_8cell_8_8p0_036_72_1
xcx11 e1n_4d_21_3 A_20_3_4d_20_3 P_23_3_4d_21_3 _8_8cell_8_8n0_018_72_1
xcx50 cx2_4in_20_3 A_21_3_4d_21_3 P_21_3_4d_20_3 _8_8cell_8_8p0_036_72_1
xcx97 cx1_4in_20_3 A_23_3_4d_21_3 P_24_3_4d_21_3 _8_8cell_8_8n0_018_72_1
xcpx14 cx8_4in_20_3 e1n_4d_20_3 cpx6_4in_22_3 cpx6_4in_23_3 P_28_3_4d_21_3 _8_8cell_8_8g_0123aaax0
xcpx3 cx9_4in_20_3 e1n_4d_21_3 P_23_3_4d_20_3 _8_8cell_8_8g0n1na_x1
xcx123 e1n_4d_21_3 A_23_3_4d_21_3 P_28_3_4d_20_3 _8_8cell_8_8n0_018_72_1
xcx113 cx1_4in_20_3 A_23_3_4d_20_3 P_24_3_4d_20_3 _8_8cell_8_8n0_018_72_1
xcx39 cx7_4in_20_3 A_21_3_4d_20_3 P_22_3_4d_21_3 _8_8cell_8_8n0_018_72_1
xcpx4 cx0_4in_20_3 cx2_4in_20_3 cx4_4in_20_3 cx6_4in_20_3 P_21_3_4d_21_3 _8_8cell_8_8g_0123aaax0
xcx124 cpx6_4in_22_3 A_23_3_4d_20_3 P_29_3_4d_20_3 _8_8cell_8_8p0_036_72_1
xcpx17 cx5_4in_20_3 cx7_4in_20_3 P_26_3_4d_20_3 _8_8cell_8_8g0n1na_x1
xcx110 cpx6_4in_23_3 A_23_3_4d_20_3 P_29_3_4d_21_3 _8_8cell_8_8p0_036_72_1
xcx19 cx3_4in_20_3 A_20_3_4d_21_3 P_20_3_4d_20_3 _8_8cell_8_8n0_018_72_1
xcx69 cx5_4in_20_3 A_22_3_4d_21_3 P_24_3_4d_21_3 _8_8cell_8_8n0_018_72_1
xcx75 e1n_4d_21_3 A_22_3_4d_20_3 P_27_3_4d_21_3 _8_8cell_8_8n0_018_72_1
xcx37 cx5_4in_20_3 A_21_3_4d_21_3 P_22_3_4d_21_3 _8_8cell_8_8n0_018_72_1
xcx31 cpx7_4in_23_3 A_20_3_4d_21_3 P_25_3_4d_20_3 _8_8cell_8_8n0_018_72_1
xcx3 cx3_4in_20_3 A_20_3_4d_20_3 P_20_3_4d_21_3 _8_8cell_8_8n0_018_72_1
xcpx1 cx1_4in_20_3 cx3_4in_20_3 P_20_3_4d_20_3 _8_8cell_8_8g0n1na_x1
xcx121 cx9_4in_20_3 A_23_3_4d_20_3 P_28_3_4d_20_3 _8_8cell_8_8n0_018_72_1
xcx119 cx7_4in_20_3 A_23_3_4d_21_3 P_26_3_4d_20_3 _8_8cell_8_8n0_018_72_1
xcx48 cx0_4in_20_3 A_21_3_4d_20_3 P_21_3_4d_20_3 _8_8cell_8_8p0_036_72_1
xcx49 cx1_4in_20_3 A_21_3_4d_20_3 P_21_3_4d_20_3 _8_8cell_8_8n0_018_72_1
xcx60 cpx6_4in_22_3 A_21_3_4d_20_3 P_27_3_4d_20_3 _8_8cell_8_8p0_036_72_1
xcpx18 cpx6_4in_22_3 cpx6_4in_23_3 P_29_3_4d_21_3 _8_8cell_8_8g_01ax2
xcx66 cx2_4in_20_3 A_22_3_4d_20_3 P_22_3_4d_21_3 _8_8cell_8_8p0_036_72_1
xcpx9 cx1_4in_20_3 cx3_4in_20_3 cx5_4in_20_3 cx7_4in_20_3 P_22_3_4d_20_3 _8_8cell_8_8g0n1n2n3naaa_x0
xcx6 cx6_4in_20_3 A_20_3_4d_20_3 P_21_3_4d_21_3 _8_8cell_8_8p0_036_72_1
xcx45 cpx7_4in_22_3 A_21_3_4d_21_3 P_27_3_4d_21_3 _8_8cell_8_8n0_018_72_1
xcx89 cx9_4in_20_3 A_22_3_4d_20_3 P_27_3_4d_20_3 _8_8cell_8_8n0_018_72_1
xcx55 cx7_4in_20_3 A_21_3_4d_21_3 P_22_3_4d_20_3 _8_8cell_8_8n0_018_72_1
xcx29 cpx7_4in_22_3 A_20_3_4d_20_3 P_25_3_4d_20_3 _8_8cell_8_8n0_018_72_1
xcx71 cx7_4in_20_3 A_22_3_4d_20_3 P_24_3_4d_21_3 _8_8cell_8_8n0_018_72_1
xcx91 e1n_4d_21_3 A_22_3_4d_21_3 P_27_3_4d_20_3 _8_8cell_8_8n0_018_72_1
xcx56 cx8_4in_20_3 A_21_3_4d_20_3 P_25_3_4d_20_3 _8_8cell_8_8p0_036_72_1
xcx87 cx7_4in_20_3 A_22_3_4d_21_3 P_24_3_4d_20_3 _8_8cell_8_8n0_018_72_1
.ends
