*
*---- act defproc: cell::g0n_012aax0<> -----
* raw ports:  in[0] in[1] in[2] out
*
.subckt _8_8cell_8_8g0n_012aax0 in_20_3 in_21_3 in_22_3 out
*.PININFO in_20_3:I in_21_3:I in_22_3:I out:O
*.POWER VDD Vdd
*.POWER GND GND
*.POWER NSUB GND
*.POWER PSUB Vdd
*
* --- node flags ---
*
* out (state-holding): pup_reff=0.2; pdn_reff=1.2
*
* --- end node flags ---
*
M0_N out in_20_3 Vdd Vdd pch W=0.3U L=0.06U
M1_N #fb8# out Vdd Vdd pch W=0.15U L=0.06U
M2_Nkeeper #9 GND Vdd Vdd pch W=0.12U L=0.51U
M3_N #4 in_20_3 GND GND nch W=0.15U L=0.06U
M4_N #fb8# out GND GND nch W=0.15U L=0.06U
M5_N out in_22_3 #3 GND nch W=0.15U L=0.06U
M6_Nkeeper out #fb8# #9 Vdd pch W=0.12U L=0.06U
M7_N #3 in_21_3 #4 GND nch W=0.15U L=0.06U
.ends
*---- end of process: g0n_012aax0<> -----
.subckt foo a b c d
xcx0 a b c d _8_8cell_8_8g0n_012aax0
.ends
