*
*---- act defproc: foo<> -----
* raw ports:  a b c d
*
.subckt foo a b c d
*.PININFO a:I b:I c:I d:O
*.POWER VDD Vdd
*.POWER GND GND
*.POWER NSUB GND
*.POWER PSUB Vdd
*
* --- node flags ---
*
* d (state-holding): pup_reff=0.2; pdn_reff=1.2
*
* --- end node flags ---
*
M0_N d a Vdd Vdd pch W=0.3U L=0.06U
M1_N #fb8# d Vdd Vdd pch W=0.15U L=0.06U
M2_Nkeeper #9 GND Vdd Vdd pch W=0.12U L=0.51U
M3_N #4 a GND GND nch W=0.15U L=0.06U
M4_N #fb8# d GND GND nch W=0.15U L=0.06U
M5_N d c #3 GND nch W=0.15U L=0.06U
M6_Nkeeper d #fb8# #9 Vdd pch W=0.12U L=0.06U
M7_N #3 b #4 GND nch W=0.15U L=0.06U
.ends
*---- end of process: foo<> -----
