*
*---- act defproc: cell::g1n_12ax0<> -----
* raw ports:  in[0] in[1] in[2] out[0] out[1]
*
.subckt _8_8cell_8_8g1n_12ax0 in_20_3 in_21_3 in_22_3 out_20_3 out_21_3
*.PININFO in_20_3:I in_21_3:I in_22_3:I out_20_3:O out_21_3:O
*.POWER VDD Vdd
*.POWER GND GND
*.POWER NSUB GND
*.POWER PSUB Vdd
*
* --- node flags ---
*
* out_20_3 (combinational)
* out_21_3 (combinational)
*
* --- end node flags ---
*
M0_N out_20_3 in_20_3 Vdd Vdd pch W=0.3U L=0.06U
M1_N out_21_3 in_20_3 Vdd Vdd pch W=0.3U L=0.06U
M2_N #3 in_20_3 GND GND nch W=0.15U L=0.06U
M3_N out_20_3 in_21_3 #3 GND nch W=0.15U L=0.06U
M4_N out_21_3 in_22_3 #3 GND nch W=0.15U L=0.06U
.ends
*---- end of process: g1n_12ax0<> -----
.subckt foo p q r
xcx0 u p q r v _8_8cell_8_8g1n_12ax0
.ends
