*
*---- act defproc: foo<> -----
* raw ports:  a b c g.vdd g.gnd
*
.subckt foo a b c g_4vdd g_4gnd
*.PININFO a:I b:I c:O g_4vdd:I g_4gnd:I
*.POWER VDD g_4vdd
*.POWER GND g_4gnd
*.POWER NSUB g_4gnd
*.POWER PSUB g_4vdd
*
* --- node flags ---
*
* c (state-holding): pup_reff=0.2; pdn_reff=0.8
*
* --- end node flags ---
*
M0_ c a g_4vdd g_4vdd pch W=0.3U L=0.06U
M1_ c b g_4vdd g_4vdd pch W=0.3U L=0.06U
M2_ #fb6# c g_4vdd g_4vdd pch W=0.15U L=0.06U
M3_keeper #7 g_4gnd g_4vdd g_4vdd pch W=0.12U L=0.33U
M4_ #3 a g_4gnd g_4gnd nch W=0.15U L=0.06U
M5_ #fb6# c g_4gnd g_4gnd nch W=0.15U L=0.06U
M6_keeper #8 g_4vdd g_4gnd g_4gnd nch W=0.12U L=0.54U
M7_ c b #3 g_4gnd nch W=0.15U L=0.06U
M8_keeper c #fb6# #7 g_4vdd pch W=0.12U L=0.06U
M9_keeper c #fb6# #8 g_4gnd nch W=0.12U L=0.06U
.ends
*---- end of process: foo<> -----
