*---------------------------------------------------
* Subcircuit from nor2.ext
*---------------------------------------------------
.subckt nor2 _
* -- connections ---
* -- fets ---
M1 a_1_0# a Vdd w_n12_n6# p W=3.3U L=0.6U
+ AS=4.95P PS=9.6U AD=2.97P PD=8.4U 
M2 out b a_1_0# w_n12_n6# p W=3.3U L=0.6U
+ AS=0P PS=0P AD=4.95P PD=9.6U 
M3 out a GND GND n W=1.2U L=0.6U
+ AS=3.6P PS=10.8U AD=2.16P PD=6U 
M4 GND b out GND n W=1.2U L=0.6U
+ AS=0P PS=0P AD=0P PD=0P 
* -- caps ---
C5 w_n12_n6# Vdd 0.427167F
C6 b a 0.131378F
C7 b w_n12_n6# 0.526042F
C8 b out 0.410568F
C9 a w_n12_n6# 0.627701F
C10 w_n12_n6# out 0.260849F
C11 a GND 1.00708F
C12 Vdd GND 0.134306F
C13 b GND 1.22139F
C14 out GND 0.698042F
C15 w_n12_n6# GND 6.06303F
.ends
*---------------------------------------------------
* Subcircuit from inv.ext
*---------------------------------------------------
.subckt inv _
* -- connections ---
* -- fets ---
M1 out in Vdd w_n2_8# p W=3.3U L=0.6U
+ AS=4.95P PS=9.6U AD=4.95P PD=9.6U 
M2 out in GND GND n W=1.2U L=0.6U
+ AS=1.8P PS=5.4U AD=1.8P PD=5.4U 
* -- caps ---
C3 out Vdd 0.115435F
C4 out w_n2_8# 0.300639F
C5 w_n2_8# Vdd 0.394932F
C6 w_n2_8# in 0.449068F
C7 w_n2_8# GND 5.01768F
C8 in GND 1.13587F
C9 Vdd GND 0.123326F
C10 out GND 0.544288F
.ends
*
*---------------------------------------------------
*  Main extract file 2.ext [scale=1]
*---------------------------------------------------
*
*--- subcircuits ---
xnor2_2 GND nor2
xinv_2 GND inv
xinv_1 GND inv
xnor2_1 GND nor2
xinv_0 GND inv
xnor2_0 GND nor2
* -- connections ---
V1 out xinv_1:out
V2 xinv_0:out xnor2_1:a
V3 in3.t xnor2_2:a
V4 in2 xnor2_2:b
V5 in1 xnor2_0:b
V6 in0 xnor2_0:a
V7 m1_151_14# xinv_2:in
V8 xinv_2:in xnor2_2:out
V9 m2_151_38# m2_116_38#
V10 m2_116_38# m2_85_38#
V11 m2_85_38# m2_25_38#
V12 m2_25_38# xnor2_0:Vdd!
V13 m1_85_14# xnor2_1:out
V14 xnor2_1:out xinv_1:in
V15 w_151_18# w_116_18#
V16 w_116_18# w_85_18#
V17 w_85_18# w_25_18#
V18 w_25_18# xnor2_0:w_n12_n6#
V19 xnor2_0:w_n12_n6# xinv_0:w_n2_8#
V20 xinv_0:w_n2_8# xnor2_1:w_n12_n6#
V21 xnor2_1:w_n12_n6# xinv_1:w_n2_8#
V22 xinv_1:w_n2_8# xinv_2:w_n2_8#
V23 xinv_2:w_n2_8# xnor2_2:w_n12_n6#
V24 m2_151_n6# m2_116_n6#
V25 m2_116_n6# m2_85_n6#
V26 m2_85_n6# m2_25_n6#
V27 m2_25_n6# xnor2_0:GND!
V28 m1_25_14# xnor2_0:out
V29 xnor2_0:out xinv_0:in
V30 m1_85_7# xnor2_1:b
V31 xnor2_1:b xinv_2:out
* -- caps ---
C32 w_25_18# w_25_18# 1.88163F
C33 out w_25_18# 0.12969F
C34 w_25_18# out 0.440634F
C35 Vdd out 0.152425F
C36 m1_85_14# GND 0.210741F
C37 m1_25_14# GND 0.210741F
C38 w_25_18# GND 6.69024F
C39 m1_151_14# GND 0.210741F
C40 Vdd GND 0.116388F
C41 in1 GND 1.01019F
C42 m1_85_7# GND 2.70811F
C43 in2 GND 1.01019F
C44 out GND 0.472919F
C45 in0 GND 1.03499F
C46 in3.t GND 1.03499F
*--- inferred globals
.global Vdd
.global GND
